# generated using pymatgen
data_K2Al9F42
_symmetry_space_group_name_H-M   'P 1'
_cell_length_a   7.34030000
_cell_length_b   7.23700000
_cell_length_c   6.40700000
_cell_angle_alpha   90.00000000
_cell_angle_beta   106.80100000
_cell_angle_gamma   90.00000000
_symmetry_Int_Tables_number   1
_chemical_formula_structural   K2Al9F42
_chemical_formula_sum   'K4 Al18 F84'
_cell_volume   325.822988102
_cell_formula_units_Z   2
loop_
 _symmetry_equiv_pos_site_id
 _symmetry_equiv_pos_as_xyz
  1  'x, y, z'
loop_
 _atom_site_type_symbol
 _atom_site_label
 _atom_site_symmetry_multiplicity
 _atom_site_fract_x
 _atom_site_fract_y
 _atom_site_fract_z
 _atom_site_occupancy
  Al  Al1  1  0.000000  0.000000  0.000000  1
  Al  Al2  1  0.736454  0.000000  0.870040  1
  Al  Al3  1  1.000000  0.000000  1.000000  1
  Al  Al4  1  0.736454  0.000000  0.870040  1
  Al  Al5  1  0.044589  0.000000  0.345920  1
  Al  Al6  1  0.781042  0.000000  0.215960  1
  Al  Al7  1  0.044589  0.000000  0.345920  1
  Al  Al8  1  0.781042  0.000000  0.215960  1
  Al  Al9  1  1.000000  0.500000  1.000000  1
  Al  Al10  1  0.736454  0.500000  0.870040  1
  Al  Al11  1  0.044589  0.500000  0.345920  1
  Al  Al12  1  0.781042  0.500000  0.215960  1
  Al  Al13  1  0.522294  0.000000  0.172960  1
  Al  Al14  1  0.258748  0.000000  0.043000  1
  Al  Al15  1  0.522294  0.000000  0.172960  1
  Al  Al16  1  0.258748  0.000000  0.043000  1
  Al  Al17  1  0.522294  0.500000  0.172960  1
  Al  Al18  1  0.258748  0.500000  0.043000  1
  K  K19  1  0.994263  0.250000  0.516007  1
  K  K20  1  0.786780  0.750000  0.699953  1
  K  K21  1  0.517856  0.250000  0.692269  1
  K  K22  1  0.263187  0.750000  0.523691  1
  F  F23  1  0.267579  0.979500  0.095981  1
  F  F24  1  0.513463  0.020500  0.119978  1
  F  F25  1  0.513463  0.479500  0.119978  1
  F  F26  1  0.267579  0.520500  0.095981  1
  F  F27  1  0.016852  0.250000  0.054404  1
  F  F28  1  0.764190  0.750000  0.161556  1
  F  F29  1  0.497537  0.250000  0.206883  1
  F  F30  1  0.283506  0.750000  0.009077  1
  F  F31  1  0.999633  0.963000  0.271373  1
  F  F32  1  0.781409  0.037000  0.944587  1
  F  F33  1  0.781409  0.463000  0.944587  1
  F  F34  1  0.999633  0.537000  0.271373  1
  F  F35  1  0.524538  0.963900  0.445580  1
  F  F36  1  0.256505  0.036100  0.770379  1
  F  F37  1  0.256505  0.463900  0.770379  1
  F  F38  1  0.524538  0.536100  0.445580  1
  F  F39  1  0.983148  0.750000  0.945596  1
  F  F40  1  0.732421  0.020500  0.904019  1
  F  F41  1  0.000367  0.037000  0.728627  1
  F  F42  1  0.267579  0.979500  0.095981  1
  F  F43  1  0.999633  0.963000  0.271373  1
  F  F44  1  0.719601  0.750000  0.815636  1
  F  F45  1  0.468874  0.020500  0.774059  1
  F  F46  1  0.736821  0.037000  0.598667  1
  F  F47  1  0.004033  0.979500  0.966021  1
  F  F48  1  0.736087  0.963000  0.141413  1
  F  F49  1  0.753306  0.250000  0.924444  1
  F  F50  1  0.983148  0.750000  0.945596  1
  F  F51  1  0.732421  0.020500  0.904019  1
  F  F52  1  0.000367  0.037000  0.728627  1
  F  F53  1  0.016852  0.250000  0.054404  1
  F  F54  1  0.719601  0.750000  0.815636  1
  F  F55  1  0.468874  0.020500  0.774059  1
  F  F56  1  0.736821  0.037000  0.598667  1
  F  F57  1  0.004033  0.979500  0.966021  1
  F  F58  1  0.736087  0.963000  0.141413  1
  F  F59  1  0.753306  0.250000  0.924444  1
  F  F60  1  0.027737  0.750000  0.291516  1
  F  F61  1  0.777010  0.020500  0.249938  1
  F  F62  1  0.044956  0.037000  0.074547  1
  F  F63  1  0.312168  0.979500  0.441901  1
  F  F64  1  0.044222  0.963000  0.617292  1
  F  F65  1  0.061441  0.250000  0.400323  1
  F  F66  1  0.764190  0.750000  0.161556  1
  F  F67  1  0.048622  0.979500  0.311941  1
  F  F68  1  0.780675  0.963000  0.487332  1
  F  F69  1  0.797895  0.250000  0.270363  1
  F  F70  1  0.027737  0.750000  0.291516  1
  F  F71  1  0.777010  0.020500  0.249938  1
  F  F72  1  0.044956  0.037000  0.074547  1
  F  F73  1  0.312168  0.979500  0.441901  1
  F  F74  1  0.044222  0.963000  0.617292  1
  F  F75  1  0.061441  0.250000  0.400323  1
  F  F76  1  0.513463  0.020500  0.119978  1
  F  F77  1  0.781409  0.037000  0.944587  1
  F  F78  1  0.048622  0.979500  0.311941  1
  F  F79  1  0.780675  0.963000  0.487332  1
  F  F80  1  0.797895  0.250000  0.270363  1
  F  F81  1  0.732421  0.479500  0.904019  1
  F  F82  1  0.000367  0.463000  0.728627  1
  F  F83  1  0.468874  0.479500  0.774059  1
  F  F84  1  0.736821  0.463000  0.598667  1
  F  F85  1  0.004033  0.520500  0.966021  1
  F  F86  1  0.736087  0.537000  0.141413  1
  F  F87  1  0.777010  0.479500  0.249938  1
  F  F88  1  0.044956  0.463000  0.074547  1
  F  F89  1  0.312168  0.520500  0.441901  1
  F  F90  1  0.044222  0.537000  0.617292  1
  F  F91  1  0.048622  0.520500  0.311941  1
  F  F92  1  0.780675  0.537000  0.487332  1
  F  F93  1  0.547052  0.750000  0.139037  1
  F  F94  1  0.524538  0.963900  0.445580  1
  F  F95  1  0.520051  0.036100  0.900340  1
  F  F96  1  0.283506  0.750000  0.009077  1
  F  F97  1  0.260992  0.963900  0.315620  1
  F  F98  1  0.233990  0.250000  0.076923  1
  F  F99  1  0.547052  0.750000  0.139037  1
  F  F100  1  0.520051  0.036100  0.900340  1
  F  F101  1  0.497537  0.250000  0.206883  1
  F  F102  1  0.260992  0.963900  0.315620  1
  F  F103  1  0.256505  0.036100  0.770379  1
  F  F104  1  0.233990  0.250000  0.076923  1
  F  F105  1  0.520051  0.463900  0.900340  1
  F  F106  1  0.260992  0.536100  0.315620  1
